model/wecc240_opf.glm
// JSON to GLM Converter Output
// InputFile '/Users/david/GitHub/dchassin/regrow/model/wecc240_opf.json'
// CreateDate '2025-04-22 12:19:25 '


// CLOCK
clock {
	timezone PST8PDT;
	starttime "2020-08-01 01:00:00 PDT";
	stoptime "2020-09-01 01:00:00 PDT";
}

// MODULES
module pypower
{
	default_reactive_power_fraction +0.2 pu;
	minimum_voltage_magnitude_deadband +0.002 pu.kV;
	minimum_voltage_angle_deadband +0.01 deg;
	version 2;
	solver_method NR;
	maximum_timestep +3600 s;
	baseMVA +100 MVA;
	enable_opf FALSE;
	opf_update_interval +0 s;
	stop_on_failure FALSE;
	save_case FALSE;
	controllers wecc240_controllers;
	solver_update_resolution +1e-08;
	maximum_iterations 50;
	solution_tolerance +0;
	solver_status SUCCESS;
	enforce_q_limits FALSE;
	use_dc_powerflow FALSE;
	save_format CSV;
	total_loss +2.60343e+08 MW;
	generation_shortfall +649953 MW;
	with_emissions FALSE;
	maximum_iterations_opf 10;
	opf_feasibility_tolerance +1.3;
	opf_gradient_tolerance +3;
	opf_condition_tolerance +1000;
	opf_cost_tolerance +0.01;
}

// GLOBALS
// version.major is set to 4
// version.minor is set to 3
// version.patch is set to 14
// version.build is set to 250422
// version.branch is set to develop_fix_pypower_shunt
// version is set to 4.3.14-250422-develop_fix_pypower_shunt
// command_line is set to /usr/local/opt/gridlabd/4.3.14-250422-develop_fix_pypower_shunt-darwin_23-x86_64/bin/gridlabd.bin /Users/david/GitHub/dchassin/regrow/model/wecc240.glm
#ifndef environment
#define environment=batch
#else
#set environment=batch
#endif //environment
#ifndef quiet
global bool quiet FALSE;
#else
#set quiet=FALSE
#endif //quiet
#ifndef warn
global bool warn TRUE;
#else
#set warn=TRUE
#endif //warn
#ifndef debugger
global bool debugger FALSE;
#else
#set debugger=FALSE
#endif //debugger
#ifndef gdb
global bool gdb FALSE;
#else
#set gdb=FALSE
#endif //gdb
#ifndef debug
global bool debug FALSE;
#else
#set debug=FALSE
#endif //debug
#ifndef test
global bool test FALSE;
#else
#set test=FALSE
#endif //test
#ifndef verbose
global bool verbose FALSE;
#else
#set verbose=FALSE
#endif //verbose
#ifndef iteration_limit
global int32 iteration_limit 100;
#else
#set iteration_limit=100
#endif //iteration_limit
// workdir is set to /Users/david/GitHub/dchassin/regrow/model
#ifndef dumpfile
#define dumpfile=gridlabd.json
#else
#set dumpfile=gridlabd.json
#endif //dumpfile
#ifndef savefile
#define savefile=wecc240.json
#else
#set savefile=wecc240.json
#endif //savefile
#ifndef dumpall
global bool dumpall FALSE;
#else
#set dumpall=FALSE
#endif //dumpall
#ifndef runchecks
global bool runchecks FALSE;
#else
#set runchecks=FALSE
#endif //runchecks
#ifndef threadcount
global int32 threadcount 1;
#else
#set threadcount=1
#endif //threadcount
#ifndef profiler
global bool profiler FALSE;
#else
#set profiler=FALSE
#endif //profiler
#ifndef pauseatexit
global bool pauseatexit FALSE;
#else
#set pauseatexit=FALSE
#endif //pauseatexit
#ifndef testoutputfile
#define testoutputfile=test.txt
#else
#set testoutputfile=test.txt
#endif //testoutputfile
#ifndef xml_encoding
global int32 xml_encoding 8;
#else
#set xml_encoding=8
#endif //xml_encoding
#ifndef clock
global timestamp clock "2020-09-01 00:06:00 PDT";
#else
#set clock=2020-09-01 00:06:00 PDT
#endif //clock
#ifndef starttime
global timestamp starttime "2020-08-01 01:00:00 PDT";
#else
#set starttime=2020-08-01 01:00:00 PDT
#endif //starttime
#ifndef stoptime
global timestamp stoptime "2020-09-01 01:00:00 PDT";
#else
#set stoptime=2020-09-01 01:00:00 PDT
#endif //stoptime
#ifndef double_format
global char32 double_format "%+lg";
#else
#set double_format=%+lg
#endif //double_format
#ifndef complex_format
global char256 complex_format "%+lg%+lg%c";
#else
#set complex_format=%+lg%+lg%c
#endif //complex_format
#ifndef complex_output_format
global enumeration complex_output_format DEFAULT;
#else
#set complex_output_format=DEFAULT
#endif //complex_output_format
#ifndef object_format
global char32 object_format "%s:%d";
#else
#set object_format=%s:%d
#endif //object_format
#ifndef object_scan
global char32 object_scan "%[^:]:%d";
#else
#set object_scan=%[^:]:%d
#endif //object_scan
#ifndef object_tree_balance
global bool object_tree_balance FALSE;
#else
#set object_tree_balance=FALSE
#endif //object_tree_balance
// kmlfile is set to 
#ifndef kmlhost
#define kmlhost=https://code.arras.energy/develop_fix_pypower_shunt/runtime
#else
#set kmlhost=https://code.arras.energy/develop_fix_pypower_shunt/runtime
#endif //kmlhost
// modelname is set to /Users/david/GitHub/dchassin/regrow/model/wecc240.glm
// execdir is set to /usr/local/opt/gridlabd/4.3.14-250422-develop_fix_pypower_shunt-darwin_23-x86_64/bin
#ifndef strictnames
global bool strictnames TRUE;
#else
#set strictnames=TRUE
#endif //strictnames
#ifndef website
#define website=http://www.gridlabd.org/
#else
#set website=http://www.gridlabd.org/
#endif //website
#ifndef urlbase
#define urlbase=http://www.gridlabd.org/
#else
#set urlbase=http://www.gridlabd.org/
#endif //urlbase
#ifndef randomstate
global int32 randomstate -694451438;
#else
#set randomstate=-694451438
#endif //randomstate
#ifndef randomseed
global int32 randomseed -694451438;
#else
#set randomseed=-694451438
#endif //randomseed
// include is set to 
// trace is set to 
#ifndef gdb_window
global bool gdb_window FALSE;
#else
#set gdb_window=FALSE
#endif //gdb_window
#ifndef tmp
#define tmp=/Users/david/.gridlabd/tmp
#else
#set tmp=/Users/david/.gridlabd/tmp
#endif //tmp
#ifndef force_compile
global int32 force_compile 0;
#else
#set force_compile=0
#endif //force_compile
#ifndef nolocks
global bool nolocks FALSE;
#else
#set nolocks=FALSE
#endif //nolocks
#ifndef skipsafe
global bool skipsafe FALSE;
#else
#set skipsafe=FALSE
#endif //skipsafe
#ifndef dateformat
global enumeration dateformat ISO;
#else
#set dateformat=ISO
#endif //dateformat
#ifndef init_sequence
global enumeration init_sequence DEFERRED;
#else
#set init_sequence=DEFERRED
#endif //init_sequence
#ifndef minimum_timestep
global int32 minimum_timestep 1;
#else
#set minimum_timestep=1
#endif //minimum_timestep
// platform is set to MACOSX
#ifndef suppress_repeat_messages
global bool suppress_repeat_messages TRUE;
#else
#set suppress_repeat_messages=TRUE
#endif //suppress_repeat_messages
#ifndef maximum_synctime
global int32 maximum_synctime 60;
#else
#set maximum_synctime=60
#endif //maximum_synctime
#ifndef run_realtime
global bool run_realtime FALSE;
#else
#set run_realtime=FALSE
#endif //run_realtime
#ifndef enter_realtime
global timestamp enter_realtime "NEVER";
#else
#set enter_realtime=NEVER
#endif //enter_realtime
// realtime_metric is set to +0
#ifndef no_deprecate
global bool no_deprecate FALSE;
#else
#set no_deprecate=FALSE
#endif //no_deprecate
// streaming_io is set to FALSE
// compileonly is set to FALSE
// initializeonly is set to FALSE
#ifndef relax_naming_rules
global bool relax_naming_rules FALSE;
#else
#set relax_naming_rules=FALSE
#endif //relax_naming_rules
#ifndef browser
#define browser=safari
#else
#set browser=safari
#endif //browser
#ifndef server_portnum
global int32 server_portnum 0;
#else
#set server_portnum=0
#endif //server_portnum
#ifndef server_quit_on_close
global bool server_quit_on_close FALSE;
#else
#set server_quit_on_close=FALSE
#endif //server_quit_on_close
// client_allowed is set to 
#ifndef autoclean
global bool autoclean TRUE;
#else
#set autoclean=TRUE
#endif //autoclean
#ifndef technology_readiness_level
global enumeration technology_readiness_level UNKNOWN;
#else
#set technology_readiness_level=UNKNOWN
#endif //technology_readiness_level
#ifndef show_progress
global bool show_progress TRUE;
#else
#set show_progress=TRUE
#endif //show_progress
#ifndef checkpoint_type
global enumeration checkpoint_type NONE;
#else
#set checkpoint_type=NONE
#endif //checkpoint_type
// checkpoint_file is set to 
#ifndef checkpoint_seqnum
global int32 checkpoint_seqnum 0;
#else
#set checkpoint_seqnum=0
#endif //checkpoint_seqnum
#ifndef checkpoint_interval
global int32 checkpoint_interval 0;
#else
#set checkpoint_interval=0
#endif //checkpoint_interval
#ifndef checkpoint_keepall
global bool checkpoint_keepall FALSE;
#else
#set checkpoint_keepall=FALSE
#endif //checkpoint_keepall
#ifndef check_version
global bool check_version FALSE;
#else
#set check_version=FALSE
#endif //check_version
#ifndef random_number_generator
global enumeration random_number_generator RNG3;
#else
#set random_number_generator=RNG3
#endif //random_number_generator
#ifndef mainloop_state
global enumeration mainloop_state DONE;
#else
#set mainloop_state=DONE
#endif //mainloop_state
#ifndef pauseat
global timestamp pauseat "NEVER";
#else
#set pauseat=NEVER
#endif //pauseat
// infourl is set to http://docs.arras.energy/index.html?owner=arras-energy&project=gridlabd&search=
#ifndef hostname
#define hostname=localhost
#else
#set hostname=localhost
#endif //hostname
#ifndef hostaddr
global char32 hostaddr "127.0.0.1";
#else
#set hostaddr=127.0.0.1
#endif //hostaddr
#ifndef autostart_gui
global bool autostart_gui TRUE;
#else
#set autostart_gui=TRUE
#endif //autostart_gui
// master is set to 
#ifndef master_port
global int64 master_port 0;
#else
#set master_port=0
#endif //master_port
#ifndef multirun_mode
global enumeration multirun_mode STANDALONE;
#else
#set multirun_mode=STANDALONE
#endif //multirun_mode
#ifndef multirun_conn
global enumeration multirun_conn NONE;
#else
#set multirun_conn=NONE
#endif //multirun_conn
#ifndef signal_timeout
global int32 signal_timeout 5000;
#else
#set signal_timeout=5000
#endif //signal_timeout
#ifndef slave_port
global int16 slave_port 6267;
#else
#set slave_port=6267
#endif //slave_port
#ifndef slave_id
global int64 slave_id 0;
#else
#set slave_id=0
#endif //slave_id
// return_code is set to 0
// exit_code is set to 0
#ifndef module_compiler_flags
global set module_compiler_flags NONE;
#else
#set module_compiler_flags=NONE
#endif //module_compiler_flags
// init_max_defer is set to 64
#ifndef mt_analysis
global bool mt_analysis FALSE;
#else
#set mt_analysis=FALSE
#endif //mt_analysis
#ifndef inline_block_size
global int32 inline_block_size 1048576;
#else
#set inline_block_size=1048576
#endif //inline_block_size
#ifndef validate
global set validate TSTD|RALL;
#else
#set validate=TSTD|RALL
#endif //validate
#ifndef sanitize
global set sanitize NAMES|POSITIONS;
#else
#set sanitize=NAMES|POSITIONS
#endif //sanitize
#ifndef sanitize_prefix
global char8 sanitize_prefix "GLD_";
#else
#set sanitize_prefix=GLD_
#endif //sanitize_prefix
#ifndef sanitize_index
#define sanitize_index=.txt
#else
#set sanitize_index=.txt
#endif //sanitize_index
// sanitize_offset is set to 
#ifndef simulation_mode
global enumeration simulation_mode EVENT;
#else
#set simulation_mode=EVENT
#endif //simulation_mode
#ifndef deltamode_allowed
global bool deltamode_allowed FALSE;
#else
#set deltamode_allowed=FALSE
#endif //deltamode_allowed
#ifndef deltamode_timestep
global int32 deltamode_timestep 10000000;
#else
#set deltamode_timestep=10000000
#endif //deltamode_timestep
#ifndef deltamode_maximumtime
global int64 deltamode_maximumtime 3600000000000;
#else
#set deltamode_maximumtime=3600000000000
#endif //deltamode_maximumtime
#ifndef deltaclock
global int64 deltaclock 0;
#else
#set deltaclock=0
#endif //deltaclock
#ifndef delta_current_clock
global double delta_current_clock +0;
#else
#set delta_current_clock=+0
#endif //delta_current_clock
// deltamode_updateorder is set to 
#ifndef deltamode_iteration_limit
global int32 deltamode_iteration_limit 10;
#else
#set deltamode_iteration_limit=10
#endif //deltamode_iteration_limit
#ifndef deltamode_forced_extra_timesteps
global int32 deltamode_forced_extra_timesteps 0;
#else
#set deltamode_forced_extra_timesteps=0
#endif //deltamode_forced_extra_timesteps
#ifndef deltamode_forced_always
global bool deltamode_forced_always FALSE;
#else
#set deltamode_forced_always=FALSE
#endif //deltamode_forced_always
#ifndef run_powerworld
global bool run_powerworld FALSE;
#else
#set run_powerworld=FALSE
#endif //run_powerworld
#ifndef bigranks
global bool bigranks TRUE;
#else
#set bigranks=TRUE
#endif //bigranks
// exename is set to /usr/local/opt/gridlabd/4.3.14-250422-develop_fix_pypower_shunt-darwin_23-x86_64/bin/gridlabd.bin
#ifndef wget_options
#define wget_options=maxsize:100MB;update:newer
#else
#set wget_options=maxsize:100MB;update:newer
#endif //wget_options
#ifndef curl_options
#define curl_options=maxsize:100MB;update:newer
#else
#set curl_options=maxsize:100MB;update:newer
#endif //curl_options
#ifndef svnroot
#define svnroot=https://github.com/arras-energy/gridlabd
#else
#set svnroot=https://github.com/arras-energy/gridlabd
#endif //svnroot
#ifndef github
#define github=https://github.com/arras-energy/gridlabd
#else
#set github=https://github.com/arras-energy/gridlabd
#endif //github
#ifndef gitraw
#define gitraw=https://raw.githubusercontent.com/arras-energy/gridlabd
#else
#set gitraw=https://raw.githubusercontent.com/arras-energy/gridlabd
#endif //gitraw
#ifndef allow_reinclude
global bool allow_reinclude FALSE;
#else
#set allow_reinclude=FALSE
#endif //allow_reinclude
#ifndef output_message_context
global set output_message_context ALL;
#else
#set output_message_context=ALL
#endif //output_message_context
#ifndef permissive_access
global int32 permissive_access 0;
#else
#set permissive_access=0
#endif //permissive_access
#ifndef relax_undefined_if
global bool relax_undefined_if FALSE;
#else
#set relax_undefined_if=FALSE
#endif //relax_undefined_if
#ifndef literal_if
global bool literal_if TRUE;
#else
#set literal_if=TRUE
#endif //literal_if
#ifndef validto_context
global enumeration validto_context 1414746112;
#else
#set validto_context=1414746112
#endif //validto_context
#ifndef daemon_configfile
#define daemon_configfile=gridlabd.cnf
#else
#set daemon_configfile=gridlabd.cnf
#endif //daemon_configfile
// timezone_locale is set to PST8PDT
#ifndef glm_save_options
global set glm_save_options MINIMAL;
#else
#set glm_save_options=MINIMAL
#endif //glm_save_options
#ifndef filesave_options
global set filesave_options ALL;
#else
#set filesave_options=ALL
#endif //filesave_options
#ifndef ignore_errors
global bool ignore_errors FALSE;
#else
#set ignore_errors=FALSE
#endif //ignore_errors
#ifndef keep_progress
global bool keep_progress FALSE;
#else
#set keep_progress=FALSE
#endif //keep_progress
#ifndef allow_variant_aggregates
global bool allow_variant_aggregates FALSE;
#else
#set allow_variant_aggregates=FALSE
#endif //allow_variant_aggregates
// progress is set to +0.994758
#ifndef server_keepalive
global bool server_keepalive FALSE;
#else
#set server_keepalive=FALSE
#endif //server_keepalive
#ifndef pythonpath
#define pythonpath=.:/usr/local/opt/gridlabd/4.3.14-250422-develop_fix_pypower_shunt-darwin_23-x86_64/share:/usr/local/opt/gridlabd/4.3.14-250422-develop_fix_pypower_shunt-darwin_23-x86_64/lib/gridlabd/python3.10/site-packages
#else
#set pythonpath=.:/usr/local/opt/gridlabd/4.3.14-250422-develop_fix_pypower_shunt-darwin_23-x86_64/share:/usr/local/opt/gridlabd/4.3.14-250422-develop_fix_pypower_shunt-darwin_23-x86_64/lib/gridlabd/python3.10/site-packages
#endif //pythonpath
// pythonexec is set to /usr/local/opt/gridlabd/4.3.14-250422-develop_fix_pypower_shunt-darwin_23-x86_64/bin/python3
// datadir is set to /usr/local/opt/gridlabd/4.3.14-250422-develop_fix_pypower_shunt-darwin_23-x86_64/share/gridlabd
// bindir is set to /usr/local/opt/gridlabd/4.3.14-250422-develop_fix_pypower_shunt-darwin_23-x86_64/bin
// vardir is set to /usr/local/opt/gridlabd/4.3.14-250422-develop_fix_pypower_shunt-darwin_23-x86_64/var/gridlabd
// libdir is set to /usr/local/opt/gridlabd/4.3.14-250422-develop_fix_pypower_shunt-darwin_23-x86_64/lib/gridlabd
// incdir is set to /usr/local/opt/gridlabd/4.3.14-250422-develop_fix_pypower_shunt-darwin_23-x86_64/include
// logfile is set to /tmp/gridlabd-log
// pidfile_dir is set to /tmp/gridlabd-pid
// configpath is set to /usr/local/opt/gridlabd/4.3.14-250422-develop_fix_pypower_shunt-darwin_23-x86_64/share/gridlabd/solver_py.conf
#ifndef json_complex_format
global set json_complex_format STRING;
#else
#set json_complex_format=STRING
#endif //json_complex_format
#ifndef rusage_file
#define rusage_file=gridlabd-rusage.csv
#else
#set rusage_file=gridlabd-rusage.csv
#endif //rusage_file
#ifndef rusage_rate
global int64 rusage_rate 0;
#else
#set rusage_rate=0
#endif //rusage_rate
#ifndef rusage
#define rusage={"utime" : 172.408541, "stime" : 3.363653, "maxrss" : 49856512, "ixrss" : 0, "idrss" : 0, "isrss" : 0, "minflt" : 15245, "majflt" : 20, "nswap" : 0, "inblock" : 0, "oublock" : 0, "msgsnd" : 0, "msgrcv" : 0, "nsignals" : 0, "nvcsw" : 121, "nivcsw" : 252664}
#else
#set rusage={"utime" : 172.408541, "stime" : 3.363653, "maxrss" : 49856512, "ixrss" : 0, "idrss" : 0, "isrss" : 0, "minflt" : 15245, "majflt" : 20, "nswap" : 0, "inblock" : 0, "oublock" : 0, "msgsnd" : 0, "msgrcv" : 0, "nsignals" : 0, "nvcsw" : 121, "nivcsw" : 252664}
#endif //rusage
#ifndef echo
global bool echo FALSE;
#else
#set echo=FALSE
#endif //echo
// filename is set to /Users/david/GitHub/dchassin/regrow/model/wecc240.glm
#ifndef country
global char8 country "US";
#else
#set country=US
#endif //country
// region is set to 
#ifndef organization
global char32 organization "arras-energy";
#else
#set organization=arras-energy
#endif //organization
// profile_output_format is set to 
#ifndef maximum_runtime
global int64 maximum_runtime 0;
#else
#set maximum_runtime=0
#endif //maximum_runtime
#ifndef flush_output
global int32 flush_output 0;
#else
#set flush_output=0
#endif //flush_output
// origin is set to dchassin/gridlabd
// gitbranch is set to develop-fix-pypower-shunt
#ifndef VERSION
#define VERSION=-ge 4.3.14
#else
#set VERSION=-ge 4.3.14
#endif //VERSION
#ifndef TIMEZONE
#define TIMEZONE=PST+8PDT
#else
#set TIMEZONE=PST+8PDT
#endif //TIMEZONE
#ifndef STARTTIME
#define STARTTIME=2020-08-01 00:00:00 PST
#else
#set STARTTIME=2020-08-01 00:00:00 PST
#endif //STARTTIME
#ifndef STOPTIME
#define STOPTIME=2020-09-01 00:00:00 PST
#else
#set STOPTIME=2020-09-01 00:00:00 PST
#endif //STOPTIME
#ifndef MAXIMUM_ITERATIONS
#define MAXIMUM_ITERATIONS=50
#else
#set MAXIMUM_ITERATIONS=50
#endif //MAXIMUM_ITERATIONS
#ifndef MAXIMUM_TIMESTEP
#define MAXIMUM_TIMESTEP=3600
#else
#set MAXIMUM_TIMESTEP=3600
#endif //MAXIMUM_TIMESTEP
#ifndef STOP_ON_FAILURE
#define STOP_ON_FAILURE=TRUE
#else
#set STOP_ON_FAILURE=TRUE
#endif //STOP_ON_FAILURE
// pypower::message_flags is set to 
// pypower::default_reactive_power_fraction is set to +0.2 pu
// pypower::minimum_voltage_magnitude_deadband is set to +0.002 pu.kV
// pypower::minimum_voltage_angle_deadband is set to +0.01 deg
// pypower::timestamp_format is set to 
// pypower::version is set to 2
// pypower::solver_method is set to NR
// pypower::maximum_timestep is set to +3600 s
// pypower::baseMVA is set to +100 MVA
// pypower::enable_opf is set to FALSE
// pypower::opf_update_interval is set to +0 s
// pypower::stop_on_failure is set to FALSE
// pypower::save_case is set to FALSE
// pypower::controllers_path is set to 
// pypower::controllers is set to wecc240_controllers
// pypower::solver_update_resolution is set to +1e-08
// pypower::maximum_iterations is set to 50
// pypower::solution_tolerance is set to +0
// pypower::solver_status is set to SUCCESS
// pypower::enforce_q_limits is set to FALSE
// pypower::use_dc_powerflow is set to FALSE
// pypower::save_format is set to CSV
// pypower::total_loss is set to +2.60343e+08 MW
// pypower::generation_shortfall is set to +649953 MW
// pypower::with_emissions is set to FALSE
// pypower::maximum_iterations_opf is set to 10
// pypower::opf_feasibility_tolerance is set to +1.3
// pypower::opf_gradient_tolerance is set to +3
// pypower::opf_condition_tolerance is set to +1000
// pypower::opf_cost_tolerance is set to +0.01
#ifndef raw_load_options
#define raw_load_options=--exclude psse_owner,psse_area,psse_zone
#else
#set raw_load_options=--exclude psse_owner,psse_area,psse_zone
#endif //raw_load_options
#ifndef GEN
#define GEN=wecc240_psse_G_8034_1
#else
#set GEN=wecc240_psse_G_8034_1
#endif //GEN
#ifndef BRANCH
#define BRANCH=wecc240_psse_B_8004_8034_0
#else
#set BRANCH=wecc240_psse_B_8004_8034_0
#endif //BRANCH

// CLASSES// SCHEDULES



// OBJECTS
object bus
{
	name "wecc240_psse_N_1001";
	latitude "36.670897";
	longitude "-108.581419";
	rng_state "16807";
	guid "70700AAD62CE576310353135C3A98E72";
	bus_i "1";
	S "0+0j MVA";
	type "PQREF";
	Pd "0 MW";
	Qd "0 MVAr";
	Gs "0 MW";
	Bs "0 MVAr";
	area "1";
	baseKV "500 kV";
	Vm "1.24453 pu.kV";
	Va "-122.01 deg";
	zone "3";
	Vmax "1.2 pu.kV";
	Vmin "0.8 pu.kV";
	weather_resolution "3600 s";
	Sn "0 W/m^2";
	Sh "0 W/m^2";
	Sg "0 W/m^2";
	Wd "0 deg";
	Ws "0 m/2";
	Td "0 degC";
	Tw "0 degC";
	RH "0 %";
	PW "0 in";
	HI "0 degF";
}
object bus
{
	name "wecc240_psse_N_1002";
	latitude "36.670897";
	longitude "-108.581419";
	rng_state "282475249";
	guid "9134611CEE6417A3E5DA0325939D99C";
	bus_i "2";
	S "448.127+33.0128j MVA";
	type "PQREF";
	Pd "448.127 MW";
	Qd "33.0128 MVAr";
	Gs "0 MW";
	Bs "0 MVAr";
	area "1";
	baseKV "345 kV";
	Vm "1.38444 pu.kV";
	Va "35.4248 deg";
	zone "3";
	Vmax "1.2 pu.kV";
	Vmin "0.8 pu.kV";
	weather_resolution "3600 s";
	Sn "0 W/m^2";
	Sh "0 W/m^2";
	Sg "0 W/m^2";
	Wd "0 deg";
	Ws "0 m/2";
	Td "0 degC";
	Tw "0 degC";
	RH "0 %";
	PW "0 in";
	HI "0 degF";
}
object bus
{
	name "wecc240_psse_N_1003";
	latitude "36.670897";
	longitude "-108.581419";
	rng_state "1622650073";
	guid "752A393ADC3993D7AE8BCE41B2FEE31";
	bus_i "3";
	S "4366.29-10.9715j MVA";
	type "PQREF";
	Pd "4366.29 MW";
	Qd "-10.9715 MVAr";
	Gs "0 MW";
	Bs "0 MVAr";
	area "1";
	baseKV "230 kV";
	Vm "0.819606 pu.kV";
	Va "54.568 deg";
	zone "10";
	Vmax "1.2 pu.kV";
	Vmin "0.8 pu.kV";
	weather_resolution "3600 s";
	Sn "0 W/m^2";
	Sh "0 W/m^2";
	Sg "0 W/m^2";
	Wd "0 deg";
	Ws "0 m/2";
	Td "0 degC";
	Tw "0 degC";
	RH "0 %";
	PW "0 in";
	HI "0 degF";
}
object bus
{
	name "wecc240_psse_N_1004";
	latitude "36.910483";
	longitude "-108.278462";
	rng_state "984943658";
	guid "39AFD580AB2E955637FCBE008D789D";
	bus_i "4";
	S "1990.53+334.817j MVA";
	type "PQREF";
	Pd "1990.53 MW";
	Qd "334.817 MVAr";
	Gs "0 MW";
	Bs "0 MVAr";
	area "1";
	baseKV "345 kV";
	Vm "3.34115 pu.kV";
	Va "-99.6539 deg";
	zone "10";
	Vmax "1.2 pu.kV";
	Vmin "0.8 pu.kV";
	weather_resolution "3600 s";
	Sn "0 W/m^2";
	Sh "0 W/m^2";
	Sg "0 W/m^2";
	Wd "0 deg";
	Ws "0 m/2";
	Td "0 degC";
	Tw "0 degC";
	RH "0 %";
	PW "0 in";
	HI "0 degF";
}
object bus
{
	name "wecc240_psse_N_1032";
	latitude "36.670897";
	longitude "-108.581419";
	rng_state "1144108930";
	guid "4536D0D0C50F528698C6BC10DCF095B";
	bus_i "5";
	S "0+0j MVA";
	type "PV";
	Pd "0 MW";
	Qd "0 MVAr";
	Gs "0 MW";
	Bs "0 MVAr";
	area "1";
	baseKV "20 kV";
	Vm "1.014 pu.kV";
	Va "-147.573 deg";
	zone "10";
	Vmax "1.2 pu.kV";
	Vmin "0.8 pu.kV";
	weather_resolution "3600 s";
	Sn "0 W/m^2";
	Sh "0 W/m^2";
	Sg "0 W/m^2";
	Wd "0 deg";
	Ws "0 m/2";
	Td "0 degC";
	Tw "0 degC";
	RH "0 %";
	PW "0 in";
	HI "0 degF";
}
object bus
{
	name "wecc240_psse_N_1034";
	latitude "36.910483";
	longitude "-108.278462";
	rng_state "470211272";
	guid "194DC21EBD985E0B46B4D4CEBC7EF16C";
	bus_i "6";
	S "0+0j MVA";
	type "PV";
	Pd "0 MW";
	Qd "0 MVAr";
	Gs "0 MW";
	Bs "0 MVAr";
	area "1";
	baseKV "20 kV";
	Vm "1.03 pu.kV";
	Va "-99.4459 deg";
	zone "10";
	Vmax "1.2 pu.kV";
	Vmin "0.8 pu.kV";
	weather_resolution "3600 s";
	Sn "0 W/m^2";
	Sh "0 W/m^2";
	Sg "0 W/m^2";
	Wd "0 deg";
	Ws "0 m/2";
	Td "0 degC";
	Tw "0 degC";
	RH "0 %";
	PW "0 in";
	HI "0 degF";
}
object bus
{
	name "wecc240_psse_N_1101";
	latitude "35.131373";
	longitude "-109.690674";
	rng_state "101027544";
	guid "5F9C963846D363091A2858BD073F9E64";
	bus_i "7";
	S "8883.65-1063.65j MVA";
	type "PQREF";
	Pd "8883.65 MW";
	Qd "-1063.65 MVAr";
	Gs "0 MW";
	Bs "0 MVAr";
	area "1";
	baseKV "500 kV";
	Vm "0.12686 pu.kV";
	Va "140.857 deg";
	zone "3";
	Vmax "1.2 pu.kV";
	Vmin "0.8 pu.kV";
	weather_resolution "3600 s";
	Sn "0 W/m^2";
	Sh "0 W/m^2";
	Sg "0 W/m^2";
	Wd "0 deg";
	Ws "0 m/2";
	Td "0 degC";
	Tw "0 degC";
	RH "0 %";
	PW "0 in";
	HI "0 degF";
}
object bus
{
	name "wecc240_psse_N_1102";
	latitude "34.940278";
	longitude "-110.300278";
	rng_state "1457850878";
	guid "54B9CAEAE3DFF4332EB1C74EB23415C5";
	bus_i "8";
	S "358.186-14.8899j MVA";
	type "PQREF";
	Pd "358.186 MW";
	Qd "-14.8899 MVAr";
	Gs "0 MW";
	Bs "0 MVAr";
	area "1";
	baseKV "345 kV";
	Vm "0.636888 pu.kV";
	Va "-160.038 deg";
	zone "3";
	Vmax "1.2 pu.kV";
	Vmin "0.8 pu.kV";
	weather_resolution "3600 s";
	Sn "0 W/m^2";
	Sh "0 W/m^2";
	Sg "0 W/m^2";
	Wd "0 deg";
	Ws "0 m/2";
	Td "0 degC";
	Tw "0 degC";
	RH "0 %";
	PW "0 in";
	HI "0 degF";
}
object bus
{
	name "wecc240_psse_N_1131";
	latitude "35.131373";
	longitude "-109.690674";
	rng_state "1458777923";
	guid "99D6D1C6FD1806A24C30B8294E82E65";
	bus_i "9";
	S "0+0j MVA";
	type "PV";
	Pd "0 MW";
	Qd "0 MVAr";
	Gs "0 MW";
	Bs "0 MVAr";
	area "1";
	baseKV "20 kV";
	Vm "1.01 pu.kV";
	Va "16.0225 deg";
	zone "3";
	Vmax "1.2 pu.kV";
	Vmin "0.8 pu.kV";
	weather_resolution "3600 s";
	Sn "0 W/m^2";
	Sh "0 W/m^2";
	Sg "0 W/m^2";
	Wd "0 deg";
	Ws "0 m/2";
	Td "0 degC";
	Tw "0 degC";
	RH "0 %";
	PW "0 in";
	HI "0 degF";
}
object bus
{
	name "wecc240_psse_N_1201";
	latitude "35.985019";
	longitude "-111.090655";
	rng_state "2007237709";
	guid "7417AB2BD27D29A15A964A37F5A91637";
	bus_i "10";
	S "320.932-19.9533j MVA";
	type "PQREF";
	Pd "320.932 MW";
	Qd "-19.9533 MVAr";
	Gs "0 MW";
	Bs "0 MVAr";
	area "1";
	baseKV "500 kV";
	Vm "0.83378 pu.kV";
	Va "-131.89 deg";
	zone "3";
	Vmax "1.2 pu.kV";
	Vmin "0.8 pu.kV";
	weather_resolution "3600 s";
	Sn "0 W/m^2";
	Sh "0 W/m^2";
	Sg "0 W/m^2";
	Wd "0 deg";
	Ws "0 m/2";
	Td "0 degC";
	Tw "0 degC";
	RH "0 %";
	PW "0 in";
	HI "0 degF";
}
object bus
{
	name "wecc240_psse_N_1202";
	latitude "36.961002";
	longitude "-110.864429";
	rng_state "823564440";
	guid "789FE440485F409F753A70A1732D7711";
	bus_i "11";
	S "1684.42-59.0523j MVA";
	type "PQREF";
	Pd "1684.42 MW";
	Qd "-59.0523 MVAr";
	Gs "0 MW";
	Bs "0 MVAr";
	area "1";
	baseKV "500 kV";
	Vm "0.00849929 pu.kV";
	Va "-156.089 deg";
	zone "3";
	Vmax "1.2 pu.kV";
	Vmin "0.8 pu.kV";
	weather_resolution "3600 s";
	Sn "0 W/m^2";
	Sh "0 W/m^2";
	Sg "0 W/m^2";
	Wd "0 deg";
	Ws "0 m/2";
	Td "0 degC";
	Tw "0 degC";
	RH "0 %";
	PW "0 in";
	HI "0 degF";
}
object bus
{
	name "wecc240_psse_N_1232";
	latitude "36.961002";
	longitude "-110.864429";
	rng_state "1115438165";
	guid "2942FB66A3959C8175A85DAC84E13465";
	bus_i "12";
	S "0+0j MVA";
	type "PV";
	Pd "0 MW";
	Qd "0 MVAr";
	Gs "0 MW";
	Bs "0 MVAr";
	area "1";
	baseKV "20 kV";
	Vm "1.08 pu.kV";
	Va "-157.293 deg";
	zone "3";
	Vmax "1.2 pu.kV";
	Vmin "0.8 pu.kV";
	weather_resolution "3600 s";
	Sn "0 W/m^2";
	Sh "0 W/m^2";
	Sg "0 W/m^2";
	Wd "0 deg";
	Ws "0 m/2";
	Td "0 degC";
	Tw "0 degC";
	RH "0 %";
	PW "0 in";
	HI "0 degF";
}
object bus
{
	name "wecc240_psse_N_1301";
	latitude "35.929472";
	longitude "-114.835922";
	rng_state "1784484492";
	guid "3D4F7E54E03E191980B0F9E4682449C";
	bus_i "13";
	S "5252.77-463.475j MVA";
	type "PQREF";
	Pd "5252.77 MW";
	Qd "-463.475 MVAr";
	Gs "0 MW";
	Bs "0 MVAr";
	area "1";
	baseKV "500 kV";
	Vm "0.740235 pu.kV";
	Va "71.5237 deg";
	zone "3";
	Vmax "1.2 pu.kV";
	Vmin "0.8 pu.kV";
	weather_resolution "3600 s";
	Sn "0 W/m^2";
	Sh "0 W/m^2";
	Sg "0 W/m^2";
	Wd "0 deg";
	Ws "0 m/2";
	Td "0 degC";
	Tw "0 degC";
	RH "0 %";
	PW "0 in";
	HI "0 degF";
}
object bus
{
	name "wecc240_psse_N_1302";
	latitude "36.649771";
	longitude "-115.134207";
	rng_state "74243042";
	guid "3460A66042AC2507653CD260F28AD6D";
	bus_i "14";
	S "34.2325-3.08724j MVA";
	type "PQREF";
	Pd "34.2325 MW";
	Qd "-3.08724 MVAr";
	Gs "0 MW";
	Bs "0 MVAr";
	area "1";
	baseKV "500 kV";
	Vm "1.37362 pu.kV";
	Va "147.025 deg";
	zone "9";
	Vmax "1.2 pu.kV";
	Vmin "0.8 pu.kV";
	weather_resolution "3600 s";
	Sn "0 W/m^2";
	Sh "0 W/m^2";
	Sg "0 W/m^2";
	Wd "0 deg";
	Ws "0 m/2";
	Td "0 degC";
	Tw "0 degC";
	RH "0 %";
	PW "0 in";
	HI "0 degF";
}
object bus
{
	name "wecc240_psse_N_1303";
	latitude "36.649771";
	longitude "-115.134207";
	rng_state "114807987";
	guid "2E543FCFB23422493A299F2840D622A0";
	bus_i "15";
	S "12220.3-1637.48j MVA";
	type "PQREF";
	Pd "12220.3 MW";
	Qd "-1637.48 MVAr";
	Gs "0 MW";
	Bs "0 MVAr";
	area "1";
	baseKV "345 kV";
	Vm "0.0161115 pu.kV";
	Va "-142.466 deg";
	zone "9";
	Vmax "1.2 pu.kV";
	Vmin "0.8 pu.kV";
	weather_resolution "3600 s";
	Sn "0 W/m^2";
	Sh "0 W/m^2";
	Sg "0 W/m^2";
	Wd "0 deg";
	Ws "0 m/2";
	Td "0 degC";
	Tw "0 degC";
	RH "0 %";
	PW "0 in";
	HI "0 degF";
}
object bus
{
	name "wecc240_psse_N_1331";
	latitude "35.929472";
	longitude "-114.835922";
	rng_state "1137522503";
	guid "F899AA1ED60F045811E88C85C948E";
	bus_i "16";
	S "0+0j MVA";
	type "PV";
	Pd "0 MW";
	Qd "0 MVAr";
	Gs "0 MW";
	Bs "0 MVAr";
	area "1";
	baseKV "20 kV";
	Vm "1.045 pu.kV";
	Va "71.8267 deg";
	zone "3";
	Vmax "1.2 pu.kV";
	Vmin "0.8 pu.kV";
	weather_resolution "3600 s";
	Sn "0 W/m^2";
	Sh "0 W/m^2";
	Sg "0 W/m^2";
	Wd "0 deg";
	Ws "0 m/2";
	Td "0 degC";
	Tw "0 degC";
	RH "0 %";
	PW "0 in";
	HI "0 degF";
}
object bus
{
	name "wecc240_psse_N_1333";
	latitude "36.649771";
	longitude "-115.134207";
	rng_state "1441282327";
	guid "3ADA46887C441AAE7BC81721F2C66EF9";
	bus_i "17";
	S "0+0j MVA";
	type "PV";
	Pd "0 MW";
	Qd "0 MVAr";
	Gs "0 MW";
	Bs "0 MVAr";
	area "1";
	baseKV "20 kV";
	Vm "1.005 pu.kV";
	Va "-160.398 deg";
	zone "9";
	Vmax "1.2 pu.kV";
	Vmin "0.8 pu.kV";
	weather_resolution "3600 s";
	Sn "0 W/m^2";
	Sh "0 W/m^2";
	Sg "0 W/m^2";
	Wd "0 deg";
	Ws "0 m/2";
	Td "0 degC";
	Tw "0 degC";
	RH "0 %";
	PW "0 in";
	HI "0 degF";
}
object bus
{
	name "wecc240_psse_N_1401";
	latitude "33.513802";
	longitude "-113.239936";
	rng_state "16531729";
	guid "52022C51390EAC6A60E74F408827FBA3";
	bus_i "18";
	S "12634.2-1667.52j MVA";
	type "PQREF";
	Pd "12634.2 MW";
	Qd "-1667.52 MVAr";
	Gs "0 MW";
	Bs "0 MVAr";
	area "1";
	baseKV "500 kV";
	Vm "0.836611 pu.kV";
	Va "113.754 deg";
	zone "3";
	Vmax "1.2 pu.kV";
	Vmin "0.8 pu.kV";
	weather_resolution "3600 s";
	Sn "0 W/m^2";
	Sh "0 W/m^2";
	Sg "0 W/m^2";
	Wd "0 deg";
	Ws "0 m/2";
	Td "0 degC";
	Tw "0 degC";
	RH "0 %";
	PW "0 in";
	HI "0 degF";
}
object bus
{
	name "wecc240_psse_N_1402";
	latitude "34.067027";
	longitude "-112.396715";
	rng_state "823378840";
	guid "7424A76713ED59B7363060CE88D34935";
	bus_i "19";
	S "10111.7-1869.22j MVA";
	type "PQREF";
	Pd "10111.7 MW";
	Qd "-1869.22 MVAr";
	Gs "0 MW";
	Bs "0 MVAr";
	area "1";
	baseKV "500 kV";
	Vm "7.37714 pu.kV";
	Va "-10.2326 deg";
	zone "3";
	Vmax "1.2 pu.kV";
	Vmin "0.8 pu.kV";
	weather_resolution "3600 s";
	Sn "0 W/m^2";
	Sh "0 W/m^2";
	Sg "0 W/m^2";
	Wd "0 deg";
	Ws "0 m/2";
	Td "0 degC";
	Tw "0 degC";
	RH "0 %";
	PW "0 in";
	HI "0 degF";
}
object bus
{
	name "wecc240_psse_N_1403";
	latitude "34.144722";
	longitude "-114.289722";
	rng_state "143542612";
	guid "CF1DB71CE5C4D6138547F73753213E4";
	bus_i "20";
	S "0+0j MVA";
	type "PQREF";
	Pd "0 MW";
	Qd "0 MVAr";
	Gs "0 MW";
	Bs "0 MVAr";
	area "1";
	baseKV "230 kV";
	Vm "7.76658e-14 pu.kV";
	Va "71.3717 deg";
	zone "3";
	Vmax "1.2 pu.kV";
	Vmin "0.8 pu.kV";
	weather_resolution "3600 s";
	Sn "0 W/m^2";
	Sh "0 W/m^2";
	Sg "0 W/m^2";
	Wd "0 deg";
	Ws "0 m/2";
	Td "0 degC";
	Tw "0 degC";
	RH "0 %";
	PW "0 in";
	HI "0 degF";
}
object bus
{
	name "wecc240_psse_N_1431";
	latitude "33.513802";
	longitude "-113.239936";
	rng_state "896544303";
	guid "5E1E31EF76632599348CC4F2B4B028BF";
	bus_i "21";
	S "0+0j MVA";
	type "PV";
	Pd "0 MW";
	Qd "0 MVAr";
	Gs "0 MW";
	Bs "0 MVAr";
	area "1";
	baseKV "20 kV";
	Vm "1.035 pu.kV";
	Va "18.295 deg";
	zone "3";
	Vmax "1.2 pu.kV";
	Vmin "0.8 pu.kV";
	weather_resolution "3600 s";
	Sn "0 W/m^2";
	Sh "0 W/m^2";
	Sg "0 W/m^2";
	Wd "0 deg";
	Ws "0 m/2";
	Td "0 degC";
	Tw "0 degC";
	RH "0 %";
	PW "0 in";
	HI "0 degF";
}
object bus
{
	name "wecc240_psse_N_2000";
	latitude "32.227887";
	longitude "-115.436076";
	rng_state "1474833169";
	guid "33CBFCE5DE3C15D72603AB097C85D7D1";
	bus_i "22";
	S "4320.26-637.039j MVA";
	type "PQREF";
	Pd "4320.26 MW";
	Qd "-637.039 MVAr";
	Gs "0 MW";
	Bs "0 MVAr";
	area "4";
	baseKV "230 kV";
	Vm "0.732159 pu.kV";
	Va "63.2882 deg";
	zone "7";
	Vmax "1.2 pu.kV";
	Vmin "0.8 pu.kV";
	weather_resolution "3600 s";
	Sn "0 W/m^2";
	Sh "0 W/m^2";
	Sg "0 W/m^2";
	Wd "0 deg";
	Ws "0 m/2";
	Td "0 degC";
	Tw "0 degC";
	RH "0 %";
	PW "0 in";
	HI "0 degF";
}
object bus
{
	name "wecc240_psse_N_2030";
	latitude "32.227887";
	longitude "-115.436076";
	rng_state "1264817709";
	guid "16E8B9EE54D6DE295FB937EC828249FB";
	bus_i "23";
	S "0+0j MVA";
	type "PV";
	Pd "0 MW";
	Qd "0 MVAr";
	Gs "0 MW";
	Bs "0 MVAr";
	area "4";
	baseKV "20 kV";
	Vm "1 pu.kV";
	Va "64.1754 deg";
	zone "7";
	Vmax "1.2 pu.kV";
	Vmin "0.8 pu.kV";
	weather_resolution "3600 s";
	Sn "0 W/m^2";
	Sh "0 W/m^2";
	Sg "0 W/m^2";
	Wd "0 deg";
	Ws "0 m/2";
	Td "0 degC";
	Tw "0 degC";
	RH "0 %";
	PW "0 in";
	HI "0 degF";
}
object bus
{
	name "wecc240_psse_N_2100";
	latitude "32.971469";
	longitude "-115.394435";
	rng_state "1998097157";
	guid "1E3107D6CCB5C3B361E890DDD4ABBCC6";
	bus_i "24";
	S "491.583-54.5432j MVA";
	type "PQREF";
	Pd "491.583 MW";
	Qd "-54.5432 MVAr";
	Gs "0 MW";
	Bs "0 MVAr";
	area "2";
	baseKV "230 kV";
	Vm "0.173845 pu.kV";
	Va "-135.457 deg";
	zone "2";
	Vmax "1.2 pu.kV";
	Vmin "0.8 pu.kV";
	weather_resolution "3600 s";
	Sn "0 W/m^2";
	Sh "0 W/m^2";
	Sg "0 W/m^2";
	Wd "0 deg";
	Ws "0 m/2";
	Td "0 degC";
	Tw "0 degC";
	RH "0 %";
	PW "0 in";
	HI "0 degF";
}
object bus
{
	name "wecc240_psse_N_2130";
	latitude "32.971469";
	longitude "-115.394435";
	rng_state "1817129560";
	guid "656B87185CBEE7421D19A3DB5A07AC59";
	bus_i "25";
	S "0+0j MVA";
	type "PV";
	Pd "0 MW";
	Qd "0 MVAr";
	Gs "0 MW";
	Bs "0 MVAr";
	area "2";
	baseKV "20 kV";
	Vm "1.035 pu.kV";
	Va "-79.967 deg";
	zone "2";
	Vmax "1.2 pu.kV";
	Vmin "0.8 pu.kV";
	weather_resolution "3600 s";
	Sn "0 W/m^2";
	Sh "0 W/m^2";
	Sg "0 W/m^2";
	Wd "0 deg";
	Ws "0 m/2";
	Td "0 degC";
	Tw "0 degC";
	RH "0 %";
	PW "0 in";
	HI "0 degF";
}
object bus
{
	name "wecc240_psse_N_2201";
	latitude "32.680823";
	longitude "-116.982615";
	rng_state "1131570933";
	guid "176136A60A6EE421004E7DBCCF69974";
	bus_i "26";
	S "0+0j MVA";
	type "PQREF";
	Pd "0 MW";
	Qd "0 MVAr";
	Gs "0 MW";
	Bs "0 MVAr";
	area "2";
	baseKV "500 kV";
	Vm "10.4883 pu.kV";
	Va "-138.906 deg";
	zone "2";
	Vmax "1.2 pu.kV";
	Vmin "0.8 pu.kV";
	weather_resolution "3600 s";
	Sn "0 W/m^2";
	Sh "0 W/m^2";
	Sg "0 W/m^2";
	Wd "0 deg";
	Ws "0 m/2";
	Td "0 degC";
	Tw "0 degC";
	RH "0 %";
	PW "0 in";
	HI "0 degF";
}
object bus
{
	name "wecc240_psse_N_2202";
	latitude "32.680823";
	longitude "-116.982615";
	rng_state "197493099";
	guid "3EE68AAA7C00CCD7205E50BB6BF53C1C";
	bus_i "27";
	S "2654.18-651.225j MVA";
	type "PQREF";
	Pd "2654.18 MW";
	Qd "-651.225 MVAr";
	Gs "0 MW";
	Bs "0 MVAr";
	area "2";
	baseKV "230 kV";
	Vm "8.77108 pu.kV";
	Va "38.0776 deg";
	zone "2";
	Vmax "1.2 pu.kV";
	Vmin "0.8 pu.kV";
	weather_resolution "3600 s";
	Sn "0 W/m^2";
	Sh "0 W/m^2";
	Sg "0 W/m^2";
	Wd "0 deg";
	Ws "0 m/2";
	Td "0 degC";
	Tw "0 degC";
	RH "0 %";
	PW "0 in";
	HI "0 degF";
}
object bus
{
	name "wecc240_psse_N_2203";
	latitude "32.784153";
	longitude "-117.137829";
	rng_state "1404280278";
	guid "57AC2B5B5E145E189B2021828D2112C";
	bus_i "28";
	S "2888.6-720.213j MVA";
	type "PQREF";
	Pd "2888.6 MW";
	Qd "-720.213 MVAr";
	Gs "0 MW";
	Bs "0 MVAr";
	area "2";
	baseKV "230 kV";
	Vm "0.00668492 pu.kV";
	Va "-17.3409 deg";
	zone "2";
	Vmax "1.2 pu.kV";
	Vmin "0.8 pu.kV";
	weather_resolution "3600 s";
	Sn "0 W/m^2";
	Sh "0 W/m^2";
	Sg "0 W/m^2";
	Wd "0 deg";
	Ws "0 m/2";
	Td "0 degC";
	Tw "0 degC";
	RH "0 %";
	PW "0 in";
	HI "0 degF";
}
object bus
{
	name "wecc240_psse_N_2233";
	latitude "32.784153";
	longitude "-117.137829";
	rng_state "893351816";
	guid "5381FB0161480692618A85CB375DF9";
	bus_i "29";
	S "0+0j MVA";
	type "PV";
	Pd "0 MW";
	Qd "0 MVAr";
	Gs "0 MW";
	Bs "0 MVAr";
	area "2";
	baseKV "20 kV";
	Vm "1.005 pu.kV";
	Va "113.122 deg";
	zone "2";
	Vmax "1.2 pu.kV";
	Vmin "0.8 pu.kV";
	weather_resolution "3600 s";
	Sn "0 W/m^2";
	Sh "0 W/m^2";
	Sg "0 W/m^2";
	Wd "0 deg";
	Ws "0 m/2";
	Td "0 degC";
	Tw "0 degC";
	RH "0 %";
	PW "0 in";
	HI "0 degF";
}
object bus
{
	name "wecc240_psse_N_2301";
	latitude "32.856407";
	longitude "-115.564590";
	rng_state "1505795335";
	guid "35B11A91FC65863071F9FDFC46E3576B";
	bus_i "30";
	S "0+0j MVA";
	type "PQREF";
	Pd "0 MW";
	Qd "0 MVAr";
	Gs "0 MW";
	Bs "0 MVAr";
	area "2";
	baseKV "500 kV";
	Vm "0.61414 pu.kV";
	Va "145.214 deg";
	zone "2";
	Vmax "1.2 pu.kV";
	Vmin "0.8 pu.kV";
	weather_resolution "3600 s";
	Sn "0 W/m^2";
	Sh "0 W/m^2";
	Sg "0 W/m^2";
	Wd "0 deg";
	Ws "0 m/2";
	Td "0 degC";
	Tw "0 degC";
	RH "0 %";
	PW "0 in";
	HI "0 degF";
}
object bus
{
	name "wecc240_psse_N_2302";
	latitude "32.856407";
	longitude "-115.564590";
	rng_state "1954899097";
	guid "31D9F540784356045EEBA550720D5491";
	bus_i "31";
	S "0+0j MVA";
	type "PQREF";
	Pd "0 MW";
	Qd "0 MVAr";
	Gs "0 MW";
	Bs "0 MVAr";
	area "2";
	baseKV "230 kV";
	Vm "1.83158 pu.kV";
	Va "-155.777 deg";
	zone "2";
	Vmax "1.2 pu.kV";
	Vmin "0.8 pu.kV";
	weather_resolution "3600 s";
	Sn "0 W/m^2";
	Sh "0 W/m^2";
	Sg "0 W/m^2";
	Wd "0 deg";
	Ws "0 m/2";
	Td "0 degC";
	Tw "0 degC";
	RH "0 %";
	PW "0 in";
	HI "0 degF";
}
object bus
{
	name "wecc240_psse_N_2332";
	latitude "32.856407";
	longitude "-115.564590";
	rng_state "1636807826";
	guid "20464BD6788B815464D9A558546FCBD2";
	bus_i "32";
	S "0+0j MVA";
	type "PV";
	Pd "0 MW";
	Qd "0 MVAr";
	Gs "0 MW";
	Bs "0 MVAr";
	area "2";
	baseKV "20 kV";
	Vm "1.035 pu.kV";
	Va "-157.298 deg";
	zone "2";
	Vmax "1.2 pu.kV";
	Vmin "0.8 pu.kV";
	weather_resolution "3600 s";
	Sn "0 W/m^2";
	Sh "0 W/m^2";
	Sg "0 W/m^2";
	Wd "0 deg";
	Ws "0 m/2";
	Td "0 degC";
	Tw "0 degC";
	RH "0 %";
	PW "0 in";
	HI "0 degF";
}
object bus
{
	name "wecc240_psse_N_2400";
	latitude "33.927377";
	longitude "-116.575220";
	rng_state "563613512";
	guid "1192C4F6A1C04C0373887F77737DFB01";
	bus_i "33";
	S "1460.04-258.43j MVA";
	type "PQREF";
	Pd "1460.04 MW";
	Qd "-258.43 MVAr";
	Gs "0 MW";
	Bs "0 MVAr";
	area "2";
	baseKV "500 kV";
	Vm "2.99961 pu.kV";
	Va "135.731 deg";
	zone "2";
	Vmax "1.2 pu.kV";
	Vmin "0.8 pu.kV";
	weather_resolution "3600 s";
	Sn "0 W/m^2";
	Sh "0 W/m^2";
	Sg "0 W/m^2";
	Wd "0 deg";
	Ws "0 m/2";
	Td "0 degC";
	Tw "0 degC";
	RH "0 %";
	PW "0 in";
	HI "0 degF";
}
object bus
{
	name "wecc240_psse_N_2401";
	latitude "34.369347";
	longitude "-117.368876";
	rng_state "101929267";
	guid "701960640359149611A01A8DCC703D1D";
	bus_i "34";
	S "1528.4-188.066j MVA";
	type "PQREF";
	Pd "1528.4 MW";
	Qd "-188.066 MVAr";
	Gs "0 MW";
	Bs "0 MVAr";
	area "2";
	baseKV "500 kV";
	Vm "0.00725312 pu.kV";
	Va "142.322 deg";
	zone "2";
	Vmax "1.2 pu.kV";
	Vmin "0.8 pu.kV";
	weather_resolution "3600 s";
	Sn "0 W/m^2";
	Sh "0 W/m^2";
	Sg "0 W/m^2";
	Wd "0 deg";
	Ws "0 m/2";
	Td "0 degC";
	Tw "0 degC";
	RH "0 %";
	PW "0 in";
	HI "0 degF";
}
object bus
{
	name "wecc240_psse_N_2402";
	latitude "34.008174";
	longitude "-117.564527";
	rng_state "1580723810";
	guid "54E971B4E829EE164959A1A898627C37";
	bus_i "35";
	S "1870.66-301.072j MVA";
	type "PQREF";
	Pd "1870.66 MW";
	Qd "-301.072 MVAr";
	Gs "0 MW";
	Bs "0 MVAr";
	area "2";
	baseKV "500 kV";
	Vm "0.439676 pu.kV";
	Va "-107.89 deg";
	zone "2";
	Vmax "1.2 pu.kV";
	Vmin "0.8 pu.kV";
	weather_resolution "3600 s";
	Sn "0 W/m^2";
	Sh "0 W/m^2";
	Sg "0 W/m^2";
	Wd "0 deg";
	Ws "0 m/2";
	Td "0 degC";
	Tw "0 degC";
	RH "0 %";
	PW "0 in";
	HI "0 degF";
}
object bus
{
	name "wecc240_psse_N_2403";
	latitude "33.796667";
	longitude "-117.224444";
	rng_state "704877633";
	guid "54D51C8A4BCA0AE4103473A9830A20E1";
	bus_i "36";
	S "1803.23-361.862j MVA";
	type "PQREF";
	Pd "1803.23 MW";
	Qd "-361.862 MVAr";
	Gs "0 MW";
	Bs "0 MVAr";
	area "2";
	baseKV "500 kV";
	Vm "0.266982 pu.kV";
	Va "164.598 deg";
	zone "2";
	Vmax "1.2 pu.kV";
	Vmin "0.8 pu.kV";
	weather_resolution "3600 s";
	Sn "0 W/m^2";
	Sh "0 W/m^2";
	Sg "0 W/m^2";
	Wd "0 deg";
	Ws "0 m/2";
	Td "0 degC";
	Tw "0 degC";
	RH "0 %";
	PW "0 in";
	HI "0 degF";
}
object bus
{
	name "wecc240_psse_N_2404";
	latitude "34.488498";
	longitude "-118.121470";
	rng_state "1358580979";
	guid "513E32B36F8DBB0B7FE01D1AA8D5AC44";
	bus_i "37";
	S "0+0j MVA";
	type "PQREF";
	Pd "0 MW";
	Qd "0 MVAr";
	Gs "0 MW";
	Bs "0 MVAr";
	area "2";
	baseKV "500 kV";
	Vm "3.28241e-15 pu.kV";
	Va "37.1552 deg";
	zone "2";
	Vmax "1.2 pu.kV";
	Vmin "0.8 pu.kV";
	weather_resolution "3600 s";
	Sn "0 W/m^2";
	Sh "0 W/m^2";
	Sg "0 W/m^2";
	Wd "0 deg";
	Ws "0 m/2";
	Td "0 degC";
	Tw "0 degC";
	RH "0 %";
	PW "0 in";
	HI "0 degF";
}
object bus
{
	name "wecc240_psse_N_2405";
	latitude "34.317296";
	longitude "-118.495046";
	rng_state "1624379149";
	guid "7384A51E52AB82E4168638C7C911970";
	bus_i "38";
	S "1463.29-142.241j MVA";
	type "PQREF";
	Pd "1463.29 MW";
	Qd "-142.241 MVAr";
	Gs "0 MW";
	Bs "0 MVAr";
	area "2";
	baseKV "230 kV";
	Vm "0.985731 pu.kV";
	Va "-83.0738 deg";
	zone "2";
	Vmax "1.2 pu.kV";
	Vmin "0.8 pu.kV";
	weather_resolution "3600 s";
	Sn "0 W/m^2";
	Sh "0 W/m^2";
	Sg "0 W/m^2";
	Wd "0 deg";
	Ws "0 m/2";
	Td "0 degC";
	Tw "0 degC";
	RH "0 %";
	PW "0 in";
	HI "0 degF";
}
object bus
{
	name "wecc240_psse_N_2406";
	latitude "34.150436";
	longitude "-118.184526";
	rng_state "2128236579";
	guid "6EAD686CE20B48265ED3479DA14C2C17";
	bus_i "39";
	S "1301.01-171.582j MVA";
	type "PQREF";
	Pd "1301.01 MW";
	Qd "-171.582 MVAr";
	Gs "0 MW";
	Bs "0 MVAr";
	area "2";
	baseKV "230 kV";
	Vm "0.658609 pu.kV";
	Va "-35.6747 deg";
	zone "2";
	Vmax "1.2 pu.kV";
	Vmin "0.8 pu.kV";
	weather_resolution "3600 s";
	Sn "0 W/m^2";
	Sh "0 W/m^2";
	Sg "0 W/m^2";
	Wd "0 deg";
	Ws "0 m/2";
	Td "0 degC";
	Tw "0 degC";
	RH "0 %";
	PW "0 in";
	HI "0 degF";
}
object bus
{
	name "wecc240_psse_N_2407";
	latitude "33.879856";
	longitude "-118.175222";
	rng_state "784558821";
	guid "3A1D3213C9617F33A4910FED0F3ED36";
	bus_i "40";
	S "3076.73-559.982j MVA";
	type "PQREF";
	Pd "3076.73 MW";
	Qd "-559.982 MVAr";
	Gs "0 MW";
	Bs "0 MVAr";
	area "2";
	baseKV "230 kV";
	Vm "0.990605 pu.kV";
	Va "-71.7979 deg";
	zone "2";
	Vmax "1.2 pu.kV";
	Vmin "0.8 pu.kV";
	weather_resolution "3600 s";
	Sn "0 W/m^2";
	Sh "0 W/m^2";
	Sg "0 W/m^2";
	Wd "0 deg";
	Ws "0 m/2";
	Td "0 degC";
	Tw "0 degC";
	RH "0 %";
	PW "0 in";
	HI "0 degF";
}
object bus
{
	name "wecc240_psse_N_2408";
	latitude "34.037233";
	longitude "-118.110120";
	rng_state "530511967";
	guid "2E96BC4697E7B1FCCEB75BB13FBCBE5";
	bus_i "41";
	S "3103.87-250.246j MVA";
	type "PQREF";
	Pd "3103.87 MW";
	Qd "-250.246 MVAr";
	Gs "0 MW";
	Bs "0 MVAr";
	area "2";
	baseKV "230 kV";
	Vm "0.119602 pu.kV";
	Va "-143.775 deg";
	zone "2";
	Vmax "1.2 pu.kV";
	Vmin "0.8 pu.kV";
	weather_resolution "3600 s";
	Sn "0 W/m^2";
	Sh "0 W/m^2";
	Sg "0 W/m^2";
	Wd "0 deg";
	Ws "0 m/2";
	Td "0 degC";
	Tw "0 degC";
	RH "0 %";
	PW "0 in";
	HI "0 degF";
}
object bus
{
	name "wecc240_psse_N_2409";
	latitude "34.008174";
	longitude "-117.564527";
	rng_state "2110010672";
	guid "5A8D49223734D6303A703BDDDAE5F70B";
	bus_i "42";
	S "2777.87-464.052j MVA";
	type "PQREF";
	Pd "2777.87 MW";
	Qd "-464.052 MVAr";
	Gs "0 MW";
	Bs "0 MVAr";
	area "2";
	baseKV "230 kV";
	Vm "0.00456222 pu.kV";
	Va "-136.384 deg";
	zone "2";
	Vmax "1.2 pu.kV";
	Vmin "0.8 pu.kV";
	weather_resolution "3600 s";
	Sn "0 W/m^2";
	Sh "0 W/m^2";
	Sg "0 W/m^2";
	Wd "0 deg";
	Ws "0 m/2";
	Td "0 degC";
	Tw "0 degC";
	RH "0 %";
	PW "0 in";
	HI "0 degF";
}
object bus
{
	name "wecc240_psse_N_2410";
	latitude "34.442694";
	longitude "-118.588440";
	rng_state "1551901393";
	guid "292F062DBBF27A8639B4D2E3F5E92E8B";
	bus_i "43";
	S "2785.98-360.561j MVA";
	type "PQREF";
	Pd "2785.98 MW";
	Qd "-360.561 MVAr";
	Gs "0 MW";
	Bs "0 MVAr";
	area "2";
	baseKV "230 kV";
	Vm "7.73002 pu.kV";
	Va "-138.495 deg";
	zone "2";
	Vmax "1.2 pu.kV";
	Vmin "0.8 pu.kV";
	weather_resolution "3600 s";
	Sn "0 W/m^2";
	Sh "0 W/m^2";
	Sg "0 W/m^2";
	Wd "0 deg";
	Ws "0 m/2";
	Td "0 degC";
	Tw "0 degC";
	RH "0 %";
	PW "0 in";
	HI "0 degF";
}
object bus
{
	name "wecc240_psse_N_2411";
	latitude "34.488498";
	longitude "-118.121470";
	rng_state "1617819336";
	guid "2ED1B66B2C8D28176D4FD02AF331F088";
	bus_i "44";
	S "1919.11-193.746j MVA";
	type "PQREF";
	Pd "1919.11 MW";
	Qd "-193.746 MVAr";
	Gs "0 MW";
	Bs "0 MVAr";
	area "2";
	baseKV "230 kV";
	Vm "1.19965 pu.kV";
	Va "-104.776 deg";
	zone "2";
	Vmax "1.2 pu.kV";
	Vmin "0.8 pu.kV";
	weather_resolution "3600 s";
	Sn "0 W/m^2";
	Sh "0 W/m^2";
	Sg "0 W/m^2";
	Wd "0 deg";
	Ws "0 m/2";
	Td "0 degC";
	Tw "0 degC";
	RH "0 %";
	PW "0 in";
	HI "0 degF";
}
object bus
{
	name "wecc240_psse_N_2431";
	latitude "34.369347";
	longitude "-117.368876";
	rng_state "1399125485";
	guid "1219982DABBB917EA5C77811865B70E";
	bus_i "45";
	S "0+0j MVA";
	type "PV";
	Pd "0 MW";
	Qd "0 MVAr";
	Gs "0 MW";
	Bs "0 MVAr";
	area "2";
	baseKV "20 kV";
	Vm "1.05 pu.kV";
	Va "118.943 deg";
	zone "2";
	Vmax "1.2 pu.kV";
	Vmin "0.8 pu.kV";
	weather_resolution "3600 s";
	Sn "0 W/m^2";
	Sh "0 W/m^2";
	Sg "0 W/m^2";
	Wd "0 deg";
	Ws "0 m/2";
	Td "0 degC";
	Tw "0 degC";
	RH "0 %";
	PW "0 in";
	HI "0 degF";
}
object bus
{
	name "wecc240_psse_N_2434";
	latitude "34.488498";
	longitude "-118.121470";
	rng_state "156091745";
	guid "64834D08BCA028A63686073FF7DF59EC";
	bus_i "46";
	S "0+0j MVA";
	type "PV";
	Pd "0 MW";
	Qd "0 MVAr";
	Gs "0 MW";
	Bs "0 MVAr";
	area "2";
	baseKV "20 kV";
	Vm "1.02 pu.kV";
	Va "-104.743 deg";
	zone "2";
	Vmax "1.2 pu.kV";
	Vmin "0.8 pu.kV";
	weather_resolution "3600 s";
	Sn "0 W/m^2";
	Sh "0 W/m^2";
	Sg "0 W/m^2";
	Wd "0 deg";
	Ws "0 m/2";
	Td "0 degC";
	Tw "0 degC";
	RH "0 %";
	PW "0 in";
	HI "0 degF";
}
object bus
{
	name "wecc240_psse_N_2438";
	latitude "34.037233";
	longitude "-118.110120";
	rng_state "1356425228";
	guid "53E8901BD3B87F741985DD198E110297";
	bus_i "47";
	S "0+0j MVA";
	type "PV";
	Pd "0 MW";
	Qd "0 MVAr";
	Gs "0 MW";
	Bs "0 MVAr";
	area "2";
	baseKV "20 kV";
	Vm "1.009 pu.kV";
	Va "-55.0905 deg";
	zone "2";
	Vmax "1.2 pu.kV";
	Vmin "0.8 pu.kV";
	weather_resolution "3600 s";
	Sn "0 W/m^2";
	Sh "0 W/m^2";
	Sg "0 W/m^2";
	Wd "0 deg";
	Ws "0 m/2";
	Td "0 degC";
	Tw "0 degC";
	RH "0 %";
	PW "0 in";
	HI "0 degF";
}
object bus
{
	name "wecc240_psse_N_2439";
	latitude "34.008174";
	longitude "-117.564527";
	rng_state "1899894091";
	guid "1D989CF182505994692C36DADF8E3CC6";
	bus_i "48";
	S "0+0j MVA";
	type "PV";
	Pd "0 MW";
	Qd "0 MVAr";
	Gs "0 MW";
	Bs "0 MVAr";
	area "2";
	baseKV "20 kV";
	Vm "1.02 pu.kV";
	Va "-60.3139 deg";
	zone "2";
	Vmax "1.2 pu.kV";
	Vmin "0.8 pu.kV";
	weather_resolution "3600 s";
	Sn "0 W/m^2";
	Sh "0 W/m^2";
	Sg "0 W/m^2";
	Wd "0 deg";
	Ws "0 m/2";
	Td "0 degC";
	Tw "0 degC";
	RH "0 %";
	PW "0 in";
	HI "0 degF";
}
object bus
{
	name "wecc240_psse_N_2501";
	latitude "33.828436";
	longitude "-117.790130";
	rng_state "585640194";
	guid "52B8CF3547BAE4815A15D0723C4CB3AA";
	bus_i "49";
	S "0+0j MVA";
	type "PQREF";
	Pd "0 MW";
	Qd "0 MVAr";
	Gs "0 MW";
	Bs "0 MVAr";
	area "2";
	baseKV "500 kV";
	Vm "1.31022 pu.kV";
	Va "163.634 deg";
	zone "2";
	Vmax "1.2 pu.kV";
	Vmin "0.8 pu.kV";
	weather_resolution "3600 s";
	Sn "0 W/m^2";
	Sh "0 W/m^2";
	Sg "0 W/m^2";
	Wd "0 deg";
	Ws "0 m/2";
	Td "0 degC";
	Tw "0 degC";
	RH "0 %";
	PW "0 in";
	HI "0 degF";
}
object bus
{
	name "wecc240_psse_N_2502";
	latitude "33.828436";
	longitude "-117.790130";
	rng_state "937186357";
	guid "C77B98D6E4F05CD4A286E5398A6090A";
	bus_i "50";
	S "4074.19-786.626j MVA";
	type "PQREF";
	Pd "4074.19 MW";
	Qd "-786.626 MVAr";
	Gs "0 MW";
	Bs "0 MVAr";
	area "2";
	baseKV "230 kV";
	Vm "1.61947 pu.kV";
	Va "24.241 deg";
	zone "2";
	Vmax "1.2 pu.kV";
	Vmin "0.8 pu.kV";
	weather_resolution "3600 s";
	Sn "0 W/m^2";
	Sh "0 W/m^2";
	Sg "0 W/m^2";
	Wd "0 deg";
	Ws "0 m/2";
	Td "0 degC";
	Tw "0 degC";
	RH "0 %";
	PW "0 in";
	HI "0 degF";
}
object bus
{
	name "wecc240_psse_N_2503";
	latitude "33.370212";
	longitude "-117.557619";
	rng_state "1646035001";
	guid "65BE37BC56F120FB2D0301B3D85C89E5";
	bus_i "51";
	S "3169.73-664.325j MVA";
	type "PQREF";
	Pd "3169.73 MW";
	Qd "-664.325 MVAr";
	Gs "0 MW";
	Bs "0 MVAr";
	area "2";
	baseKV "230 kV";
	Vm "1.88372 pu.kV";
	Va "156.524 deg";
	zone "2";
	Vmax "1.2 pu.kV";
	Vmin "0.8 pu.kV";
	weather_resolution "3600 s";
	Sn "0 W/m^2";
	Sh "0 W/m^2";
	Sg "0 W/m^2";
	Wd "0 deg";
	Ws "0 m/2";
	Td "0 degC";
	Tw "0 degC";
	RH "0 %";
	PW "0 in";
	HI "0 degF";
}
object bus
{
	name "wecc240_psse_N_2533";
	latitude "33.370212";
	longitude "-117.557619";
	rng_state "1025921153";
	guid "2F055661316D11277D7701A5749758E5";
	bus_i "52";
	S "0+0j MVA";
	type "PV";
	Pd "0 MW";
	Qd "0 MVAr";
	Gs "0 MW";
	Bs "0 MVAr";
	area "2";
	baseKV "20 kV";
	Vm "1.009 pu.kV";
	Va "156.779 deg";
	zone "2";
	Vmax "1.2 pu.kV";
	Vmin "0.8 pu.kV";
	weather_resolution "3600 s";
	Sn "0 W/m^2";
	Sh "0 W/m^2";
	Sg "0 W/m^2";
	Wd "0 deg";
	Ws "0 m/2";
	Td "0 degC";
	Tw "0 degC";
	RH "0 %";
	PW "0 in";
	HI "0 degF";
}
object bus
{
	name "wecc240_psse_N_2600";
	latitude "34.552197";
	longitude "-117.437004";
	rng_state "510616708";
	guid "17D5D0965C5AF11F7A29527A90B25153";
	bus_i "53";
	S "-3250.36+273.633j MVA";
	type "PQREF";
	Pd "-3250.36 MW";
	Qd "273.633 MVAr";
	Gs "0 MW";
	Bs "0 MVAr";
	area "2";
	baseKV "500 kV";
	Vm "0.819084 pu.kV";
	Va "-82.6636 deg";
	zone "2";
	Vmax "1.2 pu.kV";
	Vmin "0.8 pu.kV";
	weather_resolution "3600 s";
	Sn "0 W/m^2";
	Sh "0 W/m^2";
	Sg "0 W/m^2";
	Wd "0 deg";
	Ws "0 m/2";
	Td "0 degC";
	Tw "0 degC";
	RH "0 %";
	PW "0 in";
	HI "0 degF";
}
object bus
{
	name "wecc240_psse_N_2601";
	latitude "34.285768";
	longitude "-118.484219";
	rng_state "590357944";
	guid "38B5D9A082DC65427E84229B5F1CF9F3";
	bus_i "54";
	S "0+0j MVA";
	type "PQREF";
	Pd "0 MW";
	Qd "0 MVAr";
	Gs "0 MW";
	Bs "0 MVAr";
	area "2";
	baseKV "500 kV";
	Vm "0.779195 pu.kV";
	Va "160.802 deg";
	zone "2";
	Vmax "1.2 pu.kV";
	Vmin "0.8 pu.kV";
	weather_resolution "3600 s";
	Sn "0 W/m^2";
	Sh "0 W/m^2";
	Sg "0 W/m^2";
	Wd "0 deg";
	Ws "0 m/2";
	Td "0 degC";
	Tw "0 degC";
	RH "0 %";
	PW "0 in";
	HI "0 degF";
}
object bus
{
	name "wecc240_psse_N_2602";
	latitude "34.176429";
	longitude "-118.360306";
	rng_state "771515668";
	guid "3F0C6EF40AE830AA1C16020AA22BD0AF";
	bus_i "55";
	S "175.821-14.5825j MVA";
	type "PQREF";
	Pd "175.821 MW";
	Qd "-14.5825 MVAr";
	Gs "0 MW";
	Bs "0 MVAr";
	area "2";
	baseKV "500 kV";
	Vm "1.18569 pu.kV";
	Va "-162.055 deg";
	zone "2";
	Vmax "1.2 pu.kV";
	Vmin "0.8 pu.kV";
	weather_resolution "3600 s";
	Sn "0 W/m^2";
	Sh "0 W/m^2";
	Sg "0 W/m^2";
	Wd "0 deg";
	Ws "0 m/2";
	Td "0 degC";
	Tw "0 degC";
	RH "0 %";
	PW "0 in";
	HI "0 degF";
}
object bus
{
	name "wecc240_psse_N_2603";
	latitude "34.565195";
	longitude "-117.321570";
	rng_state "357571490";
	guid "3B9C04DB8267052B7376A7F4218DDD75";
	bus_i "56";
	S "0+0j MVA";
	type "PQREF";
	Pd "0 MW";
	Qd "0 MVAr";
	Gs "0 MW";
	Bs "0 MVAr";
	area "2";
	baseKV "500 kV";
	Vm "1.25631 pu.kV";
	Va "-100.884 deg";
	zone "2";
	Vmax "1.2 pu.kV";
	Vmin "0.8 pu.kV";
	weather_resolution "3600 s";
	Sn "0 W/m^2";
	Sh "0 W/m^2";
	Sg "0 W/m^2";
	Wd "0 deg";
	Ws "0 m/2";
	Td "0 degC";
	Tw "0 degC";
	RH "0 %";
	PW "0 in";
	HI "0 degF";
}
object bus
{
	name "wecc240_psse_N_2604";
	latitude "39.500381";
	longitude "-112.580826";
	rng_state "1044788124";
	guid "7B3E85E675CE667F6EDAD763194A0C8B";
	bus_i "57";
	S "3634.57-107.501j MVA";
	type "PQREF";
	Pd "3634.57 MW";
	Qd "-107.501 MVAr";
	Gs "0 MW";
	Bs "0 MVAr";
	area "2";
	baseKV "345 kV";
	Vm "0.0396957 pu.kV";
	Va "71.779 deg";
	zone "2";
	Vmax "1.2 pu.kV";
	Vmin "0.8 pu.kV";
	weather_resolution "3600 s";
	Sn "0 W/m^2";
	Sh "0 W/m^2";
	Sg "0 W/m^2";
	Wd "0 deg";
	Ws "0 m/2";
	Td "0 degC";
	Tw "0 degC";
	RH "0 %";
	PW "0 in";
	HI "0 degF";
}
object bus
{
	name "wecc240_psse_N_2605";
	latitude "34.015353";
	longitude "-118.204015";
	rng_state "1927702196";
	guid "207BD38F76B1C1192B7B2279F1F961BD";
	bus_i "58";
	S "0+0j MVA";
	type "PQREF";
	Pd "0 MW";
	Qd "0 MVAr";
	Gs "0 MW";
	Bs "0 MVAr";
	area "2";
	baseKV "287 kV";
	Vm "0.163841 pu.kV";
	Va "-65.506 deg";
	zone "2";
	Vmax "1.2 pu.kV";
	Vmin "0.8 pu.kV";
	weather_resolution "3600 s";
	Sn "0 W/m^2";
	Sh "0 W/m^2";
	Sg "0 W/m^2";
	Wd "0 deg";
	Ws "0 m/2";
	Td "0 degC";
	Tw "0 degC";
	RH "0 %";
	PW "0 in";
	HI "0 degF";
}
object bus
{
	name "wecc240_psse_N_2606";
	latitude "34.015353";
	longitude "-118.204015";
	rng_state "1952509530";
	guid "2B9ABC0914B6983951DA695DFF882C38";
	bus_i "59";
	S "0+0j MVA";
	type "PQREF";
	Pd "0 MW";
	Qd "0 MVAr";
	Gs "0 MW";
	Bs "0 MVAr";
	area "2";
	baseKV "287 kV";
	Vm "0.0151373 pu.kV";
	Va "-88.0781 deg";
	zone "2";
	Vmax "1.2 pu.kV";
	Vmin "0.8 pu.kV";
	weather_resolution "3600 s";
	Sn "0 W/m^2";
	Sh "0 W/m^2";
	Sg "0 W/m^2";
	Wd "0 deg";
	Ws "0 m/2";
	Td "0 degC";
	Tw "0 degC";
	RH "0 %";
	PW "0 in";
	HI "0 degF";
}
object bus
{
	name "wecc240_psse_N_2607";
	latitude "34.565195";
	longitude "-117.321570";
	rng_state "130060903";
	guid "7DD32FD7277D4BAE181F601E8E85E034";
	bus_i "60";
	S "0+0j MVA";
	type "PQREF";
	Pd "0 MW";
	Qd "0 MVAr";
	Gs "0 MW";
	Bs "0 MVAr";
	area "2";
	baseKV "287 kV";
	Vm "1.09089 pu.kV";
	Va "-71.8493 deg";
	zone "2";
	Vmax "1.2 pu.kV";
	Vmin "0.8 pu.kV";
	weather_resolution "3600 s";
	Sn "0 W/m^2";
	Sh "0 W/m^2";
	Sg "0 W/m^2";
	Wd "0 deg";
	Ws "0 m/2";
	Td "0 degC";
	Tw "0 degC";
	RH "0 %";
	PW "0 in";
	HI "0 degF";
}
object bus
{
	name "wecc240_psse_N_2608";
	latitude "34.589863";
	longitude "-118.663274";
	rng_state "1942727722";
	guid "6B36E71B04060BCA6C9BA4D3348E70FD";
	bus_i "61";
	S "176.171-14.5617j MVA";
	type "PQREF";
	Pd "176.171 MW";
	Qd "-14.5617 MVAr";
	Gs "0 MW";
	Bs "0 MVAr";
	area "2";
	baseKV "230 kV";
	Vm "0.000753825 pu.kV";
	Va "150.781 deg";
	zone "2";
	Vmax "1.2 pu.kV";
	Vmin "0.8 pu.kV";
	weather_resolution "3600 s";
	Sn "0 W/m^2";
	Sh "0 W/m^2";
	Sg "0 W/m^2";
	Wd "0 deg";
	Ws "0 m/2";
	Td "0 degC";
	Tw "0 degC";
	RH "0 %";
	PW "0 in";
	HI "0 degF";
}
object bus
{
	name "wecc240_psse_N_2609";
	latitude "34.146111";
	longitude "-118.255000";
	rng_state "1083454666";
	guid "5DF41D0313E8268711997D2B249C55B0";
	bus_i "62";
	S "240.46-16.1802j MVA";
	type "PQREF";
	Pd "240.46 MW";
	Qd "-16.1802 MVAr";
	Gs "0 MW";
	Bs "0 MVAr";
	area "2";
	baseKV "230 kV";
	Vm "0.59965 pu.kV";
	Va "91.3308 deg";
	zone "2";
	Vmax "1.2 pu.kV";
	Vmin "0.8 pu.kV";
	weather_resolution "3600 s";
	Sn "0 W/m^2";
	Sh "0 W/m^2";
	Sg "0 W/m^2";
	Wd "0 deg";
	Ws "0 m/2";
	Td "0 degC";
	Tw "0 degC";
	RH "0 %";
	PW "0 in";
	HI "0 degF";
}
object bus
{
	name "wecc240_psse_N_2610";
	latitude "33.697565";
	longitude "-117.911364";
	rng_state "1108728549";
	guid "24A00DA1C1213353699B0BF336323BA";
	bus_i "63";
	S "177.773+10.1374j MVA";
	type "PQREF";
	Pd "177.773 MW";
	Qd "10.1374 MVAr";
	Gs "0 MW";
	Bs "0 MVAr";
	area "2";
	baseKV "230 kV";
	Vm "0.0198918 pu.kV";
	Va "-103.171 deg";
	zone "2";
	Vmax "1.2 pu.kV";
	Vmin "0.8 pu.kV";
	weather_resolution "3600 s";
	Sn "0 W/m^2";
	Sh "0 W/m^2";
	Sg "0 W/m^2";
	Wd "0 deg";
	Ws "0 m/2";
	Td "0 degC";
	Tw "0 degC";
	RH "0 %";
	PW "0 in";
	HI "0 degF";
}
object bus
{
	name "wecc240_psse_N_2611";
	latitude "34.311310";
	longitude "-118.455696";
	rng_state "685118024";
	guid "40DF837C4B170A4361AA35344409AD8";
	bus_i "64";
	S "176.121-14.8589j MVA";
	type "PQREF";
	Pd "176.121 MW";
	Qd "-14.8589 MVAr";
	Gs "0 MW";
	Bs "0 MVAr";
	area "2";
	baseKV "230 kV";
	Vm "0.000937997 pu.kV";
	Va "-61.336 deg";
	zone "2";
	Vmax "1.2 pu.kV";
	Vmin "0.8 pu.kV";
	weather_resolution "3600 s";
	Sn "0 W/m^2";
	Sh "0 W/m^2";
	Sg "0 W/m^2";
	Wd "0 deg";
	Ws "0 m/2";
	Td "0 degC";
	Tw "0 degC";
	RH "0 %";
	PW "0 in";
	HI "0 degF";
}
object bus
{
	name "wecc240_psse_N_2612";
	latitude "34.285768";
	longitude "-118.484219";
	rng_state "2118797801";
	guid "4C6C0E85A2B3A9B1420F505503BACBCC";
	bus_i "65";
	S "213.173-18.7205j MVA";
	type "PQREF";
	Pd "213.173 MW";
	Qd "-18.7205 MVAr";
	Gs "0 MW";
	Bs "0 MVAr";
	area "2";
	baseKV "230 kV";
	Vm "0.0852925 pu.kV";
	Va "-86.3343 deg";
	zone "2";
	Vmax "1.2 pu.kV";
	Vmin "0.8 pu.kV";
	weather_resolution "3600 s";
	Sn "0 W/m^2";
	Sh "0 W/m^2";
	Sg "0 W/m^2";
	Wd "0 deg";
	Ws "0 m/2";
	Td "0 degC";
	Tw "0 degC";
	RH "0 %";
	PW "0 in";
	HI "0 degF";
}
object bus
{
	name "wecc240_psse_N_2613";
	latitude "34.037697";
	longitude "-118.230212";
	rng_state "1060806853";
	guid "403D6F0C7A68B5A0341E96D41F3A4801";
	bus_i "66";
	S "573.143-21.0604j MVA";
	type "PQREF";
	Pd "573.143 MW";
	Qd "-21.0604 MVAr";
	Gs "0 MW";
	Bs "0 MVAr";
	area "2";
	baseKV "230 kV";
	Vm "0.841342 pu.kV";
	Va "-75.6424 deg";
	zone "2";
	Vmax "1.2 pu.kV";
	Vmin "0.8 pu.kV";
	weather_resolution "3600 s";
	Sn "0 W/m^2";
	Sh "0 W/m^2";
	Sg "0 W/m^2";
	Wd "0 deg";
	Ws "0 m/2";
	Td "0 degC";
	Tw "0 degC";
	RH "0 %";
	PW "0 in";
	HI "0 degF";
}
object bus
{
	name "wecc240_psse_N_2614";
	latitude "34.015353";
	longitude "-118.204015";
	rng_state "571540977";
	guid "52C68EBC4CC8E1F69CDE32A9740D270";
	bus_i "67";
	S "245.985-12.433j MVA";
	type "PQREF";
	Pd "245.985 MW";
	Qd "-12.433 MVAr";
	Gs "0 MW";
	Bs "0 MVAr";
	area "2";
	baseKV "230 kV";
	Vm "0.121422 pu.kV";
	Va "61.7419 deg";
	zone "2";
	Vmax "1.2 pu.kV";
	Vmin "0.8 pu.kV";
	weather_resolution "3600 s";
	Sn "0 W/m^2";
	Sh "0 W/m^2";
	Sg "0 W/m^2";
	Wd "0 deg";
	Ws "0 m/2";
	Td "0 degC";
	Tw "0 degC";
	RH "0 %";
	PW "0 in";
	HI "0 degF";
}
object bus
{
	name "wecc240_psse_N_2615";
	latitude "34.176429";
	longitude "-118.360306";
	rng_state "194847408";
	guid "62A0CC3477CB9B414FBC31A354510B59";
	bus_i "68";
	S "1432.04-114.854j MVA";
	type "PQREF";
	Pd "1432.04 MW";
	Qd "-114.854 MVAr";
	Gs "0 MW";
	Bs "0 MVAr";
	area "2";
	baseKV "230 kV";
	Vm "0.588388 pu.kV";
	Va "-8.38021 deg";
	zone "2";
	Vmax "1.2 pu.kV";
	Vmin "0.8 pu.kV";
	weather_resolution "3600 s";
	Sn "0 W/m^2";
	Sh "0 W/m^2";
	Sg "0 W/m^2";
	Wd "0 deg";
	Ws "0 m/2";
	Td "0 degC";
	Tw "0 degC";
	RH "0 %";
	PW "0 in";
	HI "0 degF";
}
object bus
{
	name "wecc240_psse_N_2616";
	latitude "34.015353";
	longitude "-118.204015";
	rng_state "2035308228";
	guid "5C01CCDF6146356D2072352D2C886A9";
	bus_i "69";
	S "209.313-8.26799j MVA";
	type "PQREF";
	Pd "209.313 MW";
	Qd "-8.26799 MVAr";
	Gs "0 MW";
	Bs "0 MVAr";
	area "2";
	baseKV "230 kV";
	Vm "0.439558 pu.kV";
	Va "179.727 deg";
	zone "2";
	Vmax "1.2 pu.kV";
	Vmin "0.8 pu.kV";
	weather_resolution "3600 s";
	Sn "0 W/m^2";
	Sh "0 W/m^2";
	Sg "0 W/m^2";
	Wd "0 deg";
	Ws "0 m/2";
	Td "0 degC";
	Tw "0 degC";
	RH "0 %";
	PW "0 in";
	HI "0 degF";
}
object bus
{
	name "wecc240_psse_N_2617";
	latitude "34.109480";
	longitude "-118.254629";
	rng_state "158374933";
	guid "5D623A1727D68F7972F7EC7686B3BB30";
	bus_i "70";
	S "216.072-11.8061j MVA";
	type "PQREF";
	Pd "216.072 MW";
	Qd "-11.8061 MVAr";
	Gs "0 MW";
	Bs "0 MVAr";
	area "2";
	baseKV "230 kV";
	Vm "0.0969285 pu.kV";
	Va "166.821 deg";
	zone "2";
	Vmax "1.2 pu.kV";
	Vmin "0.8 pu.kV";
	weather_resolution "3600 s";
	Sn "0 W/m^2";
	Sh "0 W/m^2";
	Sg "0 W/m^2";
	Wd "0 deg";
	Ws "0 m/2";
	Td "0 degC";
	Tw "0 degC";
	RH "0 %";
	PW "0 in";
	HI "0 degF";
}
object bus
{
	name "wecc240_psse_N_2618";
	latitude "34.234263";
	longitude "-118.550256";
	rng_state "1075260298";
	guid "5026FAC5ABFA4FA34C22C17A838F4604";
	bus_i "71";
	S "1563.57-151.491j MVA";
	type "PQREF";
	Pd "1563.57 MW";
	Qd "-151.491 MVAr";
	Gs "0 MW";
	Bs "0 MVAr";
	area "2";
	baseKV "230 kV";
	Vm "0.0575833 pu.kV";
	Va "-115.424 deg";
	zone "2";
	Vmax "1.2 pu.kV";
	Vmin "0.8 pu.kV";
	weather_resolution "3600 s";
	Sn "0 W/m^2";
	Sh "0 W/m^2";
	Sg "0 W/m^2";
	Wd "0 deg";
	Ws "0 m/2";
	Td "0 degC";
	Tw "0 degC";
	RH "0 %";
	PW "0 in";
	HI "0 degF";
}
object bus
{
	name "wecc240_psse_N_2619";
	latitude "34.317296";
	longitude "-118.495046";
	rng_state "824938981";
	guid "25CF9B6F60420383190D95FF00FD9763";
	bus_i "72";
	S "-4928.79+420.44j MVA";
	type "PQREF";
	Pd "-4928.79 MW";
	Qd "420.44 MVAr";
	Gs "0 MW";
	Bs "0 MVAr";
	area "2";
	baseKV "230 kV";
	Vm "0.492523 pu.kV";
	Va "124.317 deg";
	zone "2";
	Vmax "1.2 pu.kV";
	Vmin "0.8 pu.kV";
	weather_resolution "3600 s";
	Sn "0 W/m^2";
	Sh "0 W/m^2";
...